82
MD iter:001
Au      0.008213   -0.000691   -0.000443
Au      0.127442    2.898192    0.311815
Au     -0.109106   -2.896858   -0.312330
Au      0.245488    5.765210    0.620512
Au     -0.226119   -5.766540   -0.620756
Au      3.093110    5.577875    0.818456
Au      2.986525    2.712439    0.511650
Au      5.859035    2.564652    0.716010
Au      4.320361    3.859669    2.793868
Au      4.630583    4.283078   -1.258672
Au      1.454134    4.170037    2.728138
Au      4.385908    0.977643    2.626692
Au      4.706628    1.427219   -1.672874
Au     -3.075856   -5.579016   -0.819647
Au     -2.968493   -2.713621   -0.512253
Au     -5.839093   -2.562030   -0.715511
Au     -4.302354   -3.858787   -2.794878
Au     -4.614526   -4.280365    1.260203
Au     -5.772164    0.281913   -0.413603
Au     -2.897848    0.142151   -0.206033
Au     -4.701695   -1.427379    1.680963
Au     -4.360331   -0.980246   -2.619796
Au     -5.605891    3.122918   -0.103877
Au     -2.734805    2.990860    0.103038
Au     -2.607624    5.856145    0.411841
Au     -4.261712    4.275399    2.180912
Au     -3.949698    4.701882   -1.874035
Au     -4.583594    1.414791    1.986066
Au     -3.072608    2.595590    4.169210
Au     -1.540296    1.303091    2.096752
Au     -1.398667    4.307905    2.525256
Au     -2.446893    3.446334   -3.962896
Au     -1.225308    1.731646   -1.991070
Au     -1.066249    4.766298   -1.773566
Au     -4.241265    1.863744   -2.313044
Au      2.704572    2.314345    4.583371
Au      1.362079    1.161750    2.304697
Au     -2.683649   -2.316159   -4.583298
Au     -1.342926   -1.164790   -2.303592
Au      5.791081   -0.281229    0.414028
Au      2.916283   -0.141876    0.210334
Au     -1.433231   -4.180299   -2.737859
Au      1.784046    4.628903   -1.571335
Au      3.327946    3.163898   -3.550380
Au      1.676217    1.591407   -1.783491
Au     -3.311543   -3.162955    3.550124
Au     -1.659785   -1.590210    1.785121
Au     -1.837165    0.874467    6.093751
Au     -0.301381   -0.419568    4.027823
Au     -1.953940   -1.997446    5.784960
Au      1.045482    0.736576    6.299620
Au      0.928617   -2.135815    5.989180
Au     -0.434656   -3.477165    3.827550
Au      2.752891   -0.583477    4.383220
Au     -0.184865    2.609760    4.485188
Au     -3.377631   -0.284833    3.946008
Au      2.627527   -5.855513   -0.410529
Au      2.753204   -2.992158   -0.102343
Au      4.281311   -4.277604   -2.179621
Au      3.971622   -4.700541    1.875441
Au      5.626726   -3.122527    0.106067
Au      4.271520   -1.865077    2.321991
Au      4.591515   -1.416168   -1.978543
Au      1.086564   -4.756096    1.766811
Au      1.417856   -4.317774   -2.532173
Au      2.467579   -3.445312    3.964349
Au      1.245378   -1.732204    1.993306
Au      3.091876   -2.597059   -4.169475
Au      1.557917   -1.304714   -2.095398
Au      1.856354   -0.875686   -6.091557
Au      0.319930    0.420397   -4.027498
Au     -0.908165    2.138285   -5.989191
Au     -2.724761    0.583554   -4.375034
Au      1.973141    1.997300   -5.782727
Au      3.384272    0.286193   -3.937622
Au     -1.025184   -0.736170   -6.298955
Au      0.205407   -2.621851   -4.492763
Au      0.455783    3.491850   -3.835873
Au     -1.765228   -4.616342    1.564636
O     -8.137733   -0.023353   -0.198178
H     -7.434363    0.254414   -0.896363
H     -9.137101   -0.121655   -0.729386
82
MD iter:002
Au      0.007368   -0.001131   -0.000443
Au      0.126720    2.898755    0.312509
Au     -0.108992   -2.895930   -0.312699
Au      0.245419    5.765808    0.621266
Au     -0.225536   -5.767173   -0.621421
Au      3.092167    5.577121    0.819150
Au      2.986582    2.711746    0.511570
Au      5.859695    2.565095    0.715498
Au      4.319446    3.859903    2.793359
Au      4.629901    4.283441   -1.258092
Au      1.454728    4.170844    2.728516
Au      4.385178    0.976812    2.627297
Au      4.705699    1.426686   -1.673089
Au     -3.075949   -5.579675   -0.820402
Au     -2.969016   -2.714303   -0.513063
Au     -5.838198   -2.561334   -0.714647
Au     -4.303024   -3.857719   -2.795618
Au     -4.615143   -4.279863    1.261033
Au     -5.772835    0.281576   -0.413340
Au     -2.898578    0.143046   -0.205503
Au     -4.701826   -1.427507    1.681050
Au     -4.361119   -0.981066   -2.619195
Au     -5.605189    3.123118   -0.103916
Au     -2.735719    2.990133    0.103584
Au     -2.607976    5.856436    0.412686
Au     -4.260979    4.274504    2.181286
Au     -3.948934    4.702808   -1.874755
Au     -4.583032    1.414599    1.985774
Au     -3.072154    2.595131    4.168491
Au     -1.539511    1.302247    2.097454
Au     -1.399545    4.307048    2.525955
Au     -2.446166    3.446982   -3.963664
Au     -1.225854    1.731132   -1.990311
Au     -1.065776    4.765565   -1.772942
Au     -4.240486    1.863459   -2.312318
Au      2.704709    2.313685    4.584013
Au      1.361177    1.161034    2.305256
Au     -2.682827   -2.316474   -4.584202
Au     -1.342137   -1.165090   -2.303514
Au      5.790360   -0.280905    0.413880
Au      2.917063   -0.141813    0.211146
Au     -1.432709   -4.180708   -2.738792
Au      1.784548    4.628195   -1.570626
Au      3.327307    3.164190   -3.550966
Au      1.675575    1.591807   -1.782728
Au     -3.312342   -3.161897    3.549298
Au     -1.659397   -1.590676    1.785302
Au     -1.836535    0.873752    6.092730
Au     -0.300808   -0.418761    4.027197
Au     -1.953567   -1.996880    5.784268
Au      1.046198    0.737371    6.300355
Au      0.929191   -2.134849    5.988601
Au     -0.434413   -3.477749    3.826623
Au      2.752402   -0.583408    4.383452
Au     -0.184696    2.608905    4.485865
Au     -3.378466   -0.283996    3.945327
Au      2.628296   -5.854835   -0.410791
Au      2.752907   -2.992215   -0.102834
Au      4.280986   -4.276712   -2.179023
Au      3.972316   -4.701267    1.875607
Au      5.627357   -3.122435    0.106685
Au      4.271821   -1.865387    2.321766
Au      4.591332   -1.416288   -1.978956
Au      1.085660   -4.756435    1.765888
Au      1.418613   -4.317919   -2.532963
Au      2.466724   -3.444348    3.964283
Au      1.246027   -1.732923    1.992966
Au      3.091156   -2.597690   -4.170320
Au      1.557225   -1.304068   -2.095460
Au      1.857016   -0.875955   -6.090885
Au      0.320680    0.419988   -4.028406
Au     -0.908479    2.139273   -5.989849
Au     -2.724379    0.584215   -4.374142
Au      1.973871    1.996586   -5.782111
Au      3.384537    0.286873   -3.936717
Au     -1.025808   -0.735206   -6.299669
Au      0.206220   -2.621810   -4.493372
Au      0.456391    3.491031   -3.835759
Au     -1.766036   -4.615487    1.565118
O     -8.134157   -0.020654   -0.193957
H     -7.481073    0.291994   -1.000191
H     -9.266603   -0.162364   -0.728478
82
MD iter:003
Au      0.006523   -0.001572   -0.000444
Au      0.126000    2.899315    0.313203
Au     -0.108878   -2.895000   -0.313069
Au      0.245349    5.766378    0.622017
Au     -0.224953   -5.767777   -0.622082
Au      3.091213    5.576336    0.819840
Au      2.986638    2.711053    0.511490
Au      5.860323    2.565528    0.714984
Au      4.318512    3.860119    2.792832
Au      4.629197    4.283782   -1.257501
Au      1.455319    4.171635    2.728881
Au      4.384433    0.975982    2.627889
Au      4.704752    1.426153   -1.673293
Au     -3.076030   -5.580303   -0.821152
Au     -2.969542   -2.714985   -0.513873
Au     -5.837272   -2.560632   -0.713780
Au     -4.303674   -3.856633   -2.796339
Au     -4.615738   -4.279339    1.261852
Au     -5.773397    0.281241   -0.413059
Au     -2.899311    0.143941   -0.204973
Au     -4.701937   -1.427632    1.681128
Au     -4.361893   -0.981885   -2.618581
Au     -5.604455    3.123307   -0.103956
Au     -2.736634    2.989408    0.104129
Au     -2.608319    5.856695    0.413528
Au     -4.260226    4.273589    2.181645
Au     -3.948151    4.703711   -1.875459
Au     -4.582451    1.414405    1.985472
Au     -3.071684    2.594660    4.167753
Au     -1.538725    1.301403    2.098154
Au     -1.400420    4.306177    2.526642
Au     -2.445429    3.447613   -3.964413
Au     -1.226399    1.730616   -1.989550
Au     -1.065303    4.764815   -1.772309
Au     -4.239693    1.863170   -2.311578
Au      2.704832    2.313013    4.584631
Au      1.360274    1.160317    2.305811
Au     -2.681992   -2.316778   -4.585083
Au     -1.341347   -1.165389   -2.303434
Au      5.789612   -0.280579    0.413731
Au      2.917839   -0.141751    0.211959
Au     -1.432186   -4.181103   -2.739712
Au      1.785047    4.627470   -1.569907
Au      3.326651    3.164468   -3.551534
Au      1.674931    1.592205   -1.781964
Au     -3.313124   -3.160824    3.548455
Au     -1.659008   -1.591143    1.785481
Au     -1.835892    0.873029    6.091680
Au     -0.300234   -0.417955    4.026573
Au     -1.953181   -1.996302    5.783548
Au      1.046905    0.738159    6.301060
Au      0.929756   -2.133868    5.987994
Au     -0.434169   -3.478316    3.825686
Au      2.751899   -0.583337    4.383671
Au     -0.184528    2.608036    4.486527
Au     -3.379287   -0.283158    3.944637
Au      2.629057   -5.854125   -0.411052
Au      2.752610   -2.992273   -0.103324
Au      4.280640   -4.275800   -2.178409
Au      3.972991   -4.701970    1.875759
Au      5.627957   -3.122331    0.107301
Au      4.272106   -1.865693    2.321528
Au      4.591131   -1.416407   -1.979360
Au      1.084757   -4.756756    1.764956
Au      1.419369   -4.318047   -2.533741
Au      2.465858   -3.443366    3.964197
Au      1.246674   -1.733640    1.992624
Au      3.090421   -2.598309   -4.171145
Au      1.556534   -1.303422   -2.095520
Au      1.857666   -0.876215   -6.090184
Au      0.321429    0.419579   -4.029312
Au     -0.908783    2.140245   -5.990480
Au     -2.723982    0.584874   -4.373236
Au      1.974588    1.995859   -5.781468
Au      3.384785    0.287552   -3.935800
Au     -1.026422   -0.734234   -6.300353
Au      0.207033   -2.621756   -4.493967
Au      0.456997    3.490196   -3.835634
Au     -1.766841   -4.614615    1.565592
O     -8.132859   -0.018000   -0.191988
H     -7.554661    0.323318   -1.092876
H     -9.347498   -0.196622   -0.706966
82
MD iter:004
Au      0.005679   -0.002012   -0.000443
Au      0.125280    2.899871    0.313895
Au     -0.108764   -2.894069   -0.313440
Au      0.245277    5.766919    0.622765
Au     -0.224368   -5.768351   -0.622741
Au      3.090249    5.575521    0.820526
Au      2.986694    2.710360    0.511411
Au      5.860919    2.565953    0.714467
Au      4.317559    3.860316    2.792286
Au      4.628469    4.284104   -1.256899
Au      1.455908    4.172410    2.729235
Au      4.383674    0.975154    2.628469
Au      4.703789    1.425618   -1.673488
Au     -3.076100   -5.580899   -0.821899
Au     -2.970068   -2.715667   -0.514682
Au     -5.836315   -2.559923   -0.712910
Au     -4.304303   -3.855529   -2.797040
Au     -4.616311   -4.278795    1.262658
Au     -5.773882    0.280908   -0.412767
Au     -2.900047    0.144834   -0.204443
Au     -4.702030   -1.427754    1.681198
Au     -4.362651   -0.982704   -2.617954
Au     -5.603690    3.123485   -0.103995
Au     -2.737549    2.988684    0.104674
Au     -2.608653    5.856921    0.414367
Au     -4.259453    4.272655    2.181986
Au     -3.947349    4.704590   -1.876149
Au     -4.581852    1.414208    1.985160
Au     -3.071200    2.594176    4.166995
Au     -1.537938    1.300560    2.098851
Au     -1.401293    4.305291    2.527317
Au     -2.444680    3.448227   -3.965142
Au     -1.226942    1.730097   -1.988790
Au     -1.064830    4.764047   -1.771667
Au     -4.238887    1.862876   -2.310824
Au      2.704944    2.312330    4.585226
Au      1.359370    1.159600    2.306362
Au     -2.681145   -2.317070   -4.585941
Au     -1.340557   -1.165685   -2.303352
Au      5.788836   -0.280253    0.413582
Au      2.918612   -0.141688    0.212773
Au     -1.431662   -4.181484   -2.740619
Au      1.785542    4.626728   -1.569179
Au      3.325980    3.164732   -3.552085
Au      1.674285    1.592602   -1.781199
Au     -3.313888   -3.159735    3.547596
Au     -1.658617   -1.591609    1.785657
Au     -1.835237    0.872298    6.090601
Au     -0.299661   -0.417149    4.025948
Au     -1.952780   -1.995711    5.782801
Au      1.047603    0.738939    6.301735
Au      0.930312   -2.132872    5.987358
Au     -0.433925   -3.478866    3.824738
Au      2.751383   -0.583265    4.383878
Au     -0.184360    2.607154    4.487173
Au     -3.380093   -0.282321    3.943936
Au      2.629809   -5.853383   -0.411309
Au      2.752313   -2.992331   -0.103813
Au      4.280272   -4.274869   -2.177780
Au      3.973648   -4.702649    1.875896
Au      5.628526   -3.122215    0.107917
Au      4.272375   -1.865997    2.321279
Au      4.590913   -1.416524   -1.979754
Au      1.083854   -4.757060    1.764016
Au      1.420123   -4.318161   -2.534506
Au      2.464982   -3.442367    3.964090
Au      1.247320   -1.734355    1.992279
Au      3.089672   -2.598916   -4.171950
Au      1.555841   -1.302774   -2.095579
Au      1.858303   -0.876466   -6.089454
Au      0.322176    0.419171   -4.030218
Au     -0.909080    2.141203   -5.991083
Au     -2.723571    0.585529   -4.372317
Au      1.975292    1.995118   -5.780800
Au      3.385015    0.288228   -3.934870
Au     -1.027027   -0.733255   -6.301006
Au      0.207846   -2.621688   -4.494548
Au      0.457601    3.489345   -3.835498
Au     -1.767645   -4.613726    1.566057
O     -8.133691   -0.015244   -0.192811
H     -7.651584    0.345443   -1.163660
H     -9.379268   -0.223602   -0.665695
82
MD iter:005
Au      0.004837   -0.002452   -0.000441
Au      0.124560    2.900424    0.314587
Au     -0.108651   -2.893135   -0.313811
Au      0.245204    5.767431    0.623510
Au     -0.223784   -5.768895   -0.623396
Au      3.089275    5.574676    0.821207
Au      2.986751    2.709667    0.511333
Au      5.861483    2.566370    0.713947
Au      4.316587    3.860494    2.791722
Au      4.627718    4.284404   -1.256287
Au      1.456494    4.173169    2.729576
Au      4.382901    0.974328    2.629036
Au      4.702808    1.425083   -1.673673
Au     -3.076159   -5.581463   -0.822641
Au     -2.970596   -2.716348   -0.515492
Au     -5.835328   -2.559207   -0.712037
Au     -4.304912   -3.854407   -2.797722
Au     -4.616861   -4.278229    1.263451
Au     -5.774311    0.280577   -0.412470
Au     -2.900786    0.145726   -0.203915
Au     -4.702103   -1.427872    1.681258
Au     -4.363394   -0.983523   -2.617315
Au     -5.602894    3.123652   -0.104034
Au     -2.738464    2.987963    0.105219
Au     -2.608978    5.857115    0.415203
Au     -4.258660    4.271702    2.182313
Au     -3.946529    4.705445   -1.876824
Au     -4.581234    1.414009    1.984836
Au     -3.070700    2.593680    4.166219
Au     -1.537149    1.299717    2.099547
Au     -1.402164    4.304390    2.527980
Au     -2.443921    3.448823   -3.965850
Au     -1.227485    1.729577   -1.988029
Au     -1.064357    4.763263   -1.771015
Au     -4.238067    1.862578   -2.310055
Au      2.705043    2.311636    4.585798
Au      1.358466    1.158884    2.306910
Au     -2.680285   -2.317350   -4.586775
Au     -1.339766   -1.165980   -2.303269
Au      5.788032   -0.279926    0.413431
Au      2.919380   -0.141626    0.213589
Au     -1.431137   -4.181850   -2.741514
Au      1.786034    4.625968   -1.568442
Au      3.325294    3.164983   -3.552618
Au      1.673639    1.592996   -1.780433
Au     -3.314635   -3.158632    3.546721
Au     -1.658224   -1.592075    1.785832
Au     -1.834568    0.871560    6.089493
Au     -0.299087   -0.416345    4.025324
Au     -1.952366   -1.995107    5.782025
Au      1.048291    0.739711    6.302380
Au      0.930859   -2.131862    5.986695
Au     -0.433679   -3.479400    3.823780
Au      2.750855   -0.583192    4.384072
Au     -0.184192    2.606260    4.487804
Au     -3.380886   -0.281484    3.943226
Au      2.630553   -5.852610   -0.411564
Au      2.752016   -2.992390   -0.104301
Au      4.279883   -4.273920   -2.177135
Au      3.974287   -4.703306    1.876019
Au      5.629063   -3.122087    0.108532
Au      4.272630   -1.866298    2.321019
Au      4.590678   -1.416641   -1.980139
Au      1.082952   -4.757347    1.763066
Au      1.420874   -4.318260   -2.535258
Au      2.464095   -3.441351    3.963963
Au      1.247964   -1.735068    1.991931
Au      3.088908   -2.599510   -4.172734
Au      1.555149   -1.302126   -2.095636
Au      1.858928   -0.876709   -6.088696
Au      0.322922    0.418763   -4.031123
Au     -0.909367    2.142145   -5.991658
Au     -2.723144    0.586181   -4.371385
Au      1.975982    1.994364   -5.780105
Au      3.385228    0.288903   -3.933929
Au     -1.027622   -0.732267   -6.301629
Au      0.208658   -2.621606   -4.495116
Au      0.458203    3.488478   -3.835351
Au     -1.768445   -4.612822    1.566512
O     -8.136695   -0.012302   -0.196766
H     -7.766648    0.356625   -1.205266
H     -9.362349   -0.242764   -0.605634
82
MD iter:006
Au      0.003995   -0.002892   -0.000439
Au      0.123841    2.900974    0.315278
Au     -0.108539   -2.892200   -0.314182
Au      0.245129    5.767915    0.624253
Au     -0.223198   -5.769410   -0.624048
Au      3.088290    5.573802    0.821883
Au      2.986807    2.708974    0.511256
Au      5.862015    2.566777    0.713426
Au      4.315597    3.860653    2.791139
Au      4.626944    4.284683   -1.255664
Au      1.457077    4.173912    2.729906
Au      4.382113    0.973504    2.629591
Au      4.701810    1.424547   -1.673848
Au     -3.076206   -5.581995   -0.823378
Au     -2.971123   -2.717028   -0.516300
Au     -5.834312   -2.558484   -0.711162
Au     -4.305499   -3.853269   -2.798385
Au     -4.617389   -4.277643    1.264232
Au     -5.774692    0.280246   -0.412170
Au     -2.901527    0.146617   -0.203388
Au     -4.702158   -1.427988    1.681310
Au     -4.364120   -0.984340   -2.616663
Au     -5.602067    3.123807   -0.104073
Au     -2.739379    2.987243    0.105764
Au     -2.609295    5.857277    0.416036
Au     -4.257849    4.270729    2.182623
Au     -3.945690    4.706277   -1.877484
Au     -4.580599    1.413808    1.984502
Au     -3.070185    2.593172    4.165423
Au     -1.536360    1.298876    2.100240
Au     -1.403030    4.303474    2.528631
Au     -2.443152    3.449402   -3.966538
Au     -1.228026    1.729054   -1.987267
Au     -1.063883    4.762463   -1.770354
Au     -4.237234    1.862276   -2.309273
Au      2.705130    2.310930    4.586346
Au      1.357563    1.158168    2.307455
Au     -2.679414   -2.317617   -4.587586
Au     -1.338976   -1.166273   -2.303184
Au      5.787200   -0.279597    0.413279
Au      2.920143   -0.141565    0.214405
Au     -1.430611   -4.182202   -2.742397
Au      1.786523    4.625191   -1.567696
Au      3.324592    3.165219   -3.553133
Au      1.672990    1.593389   -1.779666
Au     -3.315365   -3.157515    3.545831
Au     -1.657830   -1.592541    1.786005
Au     -1.833887    0.870815    6.088356
Au     -0.298513   -0.415543    4.024700
Au     -1.951938   -1.994491    5.781222
Au      1.048970    0.740474    6.302994
Au      0.931396   -2.130837    5.986004
Au     -0.433433   -3.479915    3.822811
Au      2.750313   -0.583118    4.384255
Au     -0.184023    2.605353    4.488420
Au     -3.381664   -0.280648    3.942508
Au      2.631288   -5.851806   -0.411816
Au      2.751720   -2.992448   -0.104788
Au      4.279473   -4.272951   -2.176477
Au      3.974906   -4.703938    1.876127
Au      5.629569   -3.121948    0.109146
Au      4.272870   -1.866597    2.320748
Au      4.590425   -1.416756   -1.980514
Au      1.082051   -4.757616    1.762107
Au      1.421623   -4.318343   -2.535998
Au      2.463199   -3.440319    3.963816
Au      1.248606   -1.735780    1.991582
Au      3.088131   -2.600092   -4.173497
Au      1.554456   -1.301476   -2.095691
Au      1.859540   -0.876944   -6.087910
Au      0.323666    0.418356   -4.032026
Au     -0.909646    2.143072   -5.992206
Au     -2.722702    0.586830   -4.370439
Au      1.976658    1.993597   -5.779385
Au      3.385422    0.289575   -3.932976
Au     -1.028208   -0.731273   -6.302221
Au      0.209469   -2.621511   -4.495670
Au      0.458802    3.487594   -3.835194
Au     -1.769243   -4.611901    1.566956
O     -8.142124   -0.009170   -0.203995
H     -7.893765    0.356497   -1.214354
H     -9.296898   -0.253647   -0.527450
82
MD iter:007
Au      0.003155   -0.003331   -0.000436
Au      0.123123    2.901520    0.315968
Au     -0.108427   -2.891265   -0.314555
Au      0.245052    5.768370    0.624993
Au     -0.222613   -5.769895   -0.624696
Au      3.087294    5.572899    0.822555
Au      2.986862    2.708280    0.511181
Au      5.862514    2.567176    0.712901
Au      4.314588    3.860793    2.790539
Au      4.626148    4.284941   -1.255030
Au      1.457655    4.174639    2.730224
Au      4.381311    0.972683    2.630132
Au      4.700795    1.424011   -1.674012
Au     -3.076242   -5.582495   -0.824111
Au     -2.971649   -2.717707   -0.517108
Au     -5.833267   -2.557754   -0.710285
Au     -4.306065   -3.852113   -2.799029
Au     -4.617895   -4.277036    1.265001
Au     -5.775030    0.279915   -0.411865
Au     -2.902271    0.147504   -0.202861
Au     -4.702195   -1.428101    1.681354
Au     -4.364831   -0.985155   -2.615999
Au     -5.601210    3.123951   -0.104112
Au     -2.740292    2.986524    0.106309
Au     -2.609602    5.857406    0.416866
Au     -4.257019    4.269738    2.182918
Au     -3.944833    4.707085   -1.878130
Au     -4.579947    1.413605    1.984158
Au     -3.069655    2.592651    4.164608
Au     -1.535569    1.298036    2.100930
Au     -1.403893    4.302544    2.529269
Au     -2.442372    3.449963   -3.967205
Au     -1.228565    1.728530   -1.986506
Au     -1.063410    4.761645   -1.769684
Au     -4.236388    1.861969   -2.308477
Au      2.705205    2.310214    4.586871
Au      1.356660    1.157453    2.307995
Au     -2.678530   -2.317873   -4.588373
Au     -1.338186   -1.166563   -2.303098
Au      5.786342   -0.279268    0.413127
Au      2.920900   -0.141503    0.215223
Au     -1.430084   -4.182540   -2.743266
Au      1.787006    4.624396   -1.566940
Au      3.323877    3.165442   -3.553629
Au      1.672341    1.593780   -1.778897
Au     -3.316078   -3.156382    3.544926
Au     -1.657434   -1.593007    1.786175
Au     -1.833192    0.870062    6.087192
Au     -0.297939   -0.414743    4.024078
Au     -1.951496   -1.993862    5.780391
Au      1.049639    0.741228    6.303579
Au      0.931924   -2.129797    5.985286
Au     -0.433187   -3.480413    3.821833
Au      2.749758   -0.583042    4.384425
Au     -0.183854    2.604434    4.489019
Au     -3.382426   -0.279814    3.941779
Au      2.632015   -5.850972   -0.412066
Au      2.751424   -2.992507   -0.105274
Au      4.279042   -4.271964   -2.175803
Au      3.975506   -4.704547    1.876221
Au      5.630044   -3.121796    0.109758
Au      4.273095   -1.866893    2.320466
Au      4.590154   -1.416871   -1.980880
Au      1.081152   -4.757867    1.761139
Au      1.422368   -4.318412   -2.536724
Au      2.462293   -3.439270    3.963647
Au      1.249247   -1.736489    1.991230
Au      3.087340   -2.600661   -4.174239
Au      1.553764   -1.300824   -2.095745
Au      1.860139   -0.877169   -6.087096
Au      0.324408    0.417950   -4.032927
Au     -0.909917    2.143984   -5.992725
Au     -2.722244    0.587475   -4.369479
Au      1.977321    1.992817   -5.778640
Au      3.385599    0.290244   -3.932012
Au     -1.028784   -0.730270   -6.302781
Au      0.210278   -2.621402   -4.496211
Au      0.459399    3.486695   -3.835026
Au     -1.770039   -4.610964    1.567391
O     -8.150235   -0.005926   -0.214309
H     -8.025507    0.346723   -1.192889
H     -9.185521   -0.256492   -0.432070
82
MD iter:008
Au      0.002315   -0.003768   -0.000431
Au      0.122407    2.902064    0.316658
Au     -0.108315   -2.890328   -0.314928
Au      0.244973    5.768797    0.625731
Au     -0.222027   -5.770350   -0.625341
Au      3.086289    5.571968    0.823222
Au      2.986916    2.707586    0.511107
Au      5.862981    2.567565    0.712375
Au      4.313561    3.860914    2.789920
Au      4.625328    4.285178   -1.254386
Au      1.458229    4.175349    2.730530
Au      4.380495    0.971866    2.630659
Au      4.699763    1.423475   -1.674165
Au     -3.076265   -5.582963   -0.824840
Au     -2.972174   -2.718383   -0.517914
Au     -5.832192   -2.557020   -0.709406
Au     -4.306610   -3.850941   -2.799654
Au     -4.618377   -4.276408    1.265756
Au     -5.775326    0.279584   -0.411557
Au     -2.903019    0.148389   -0.202335
Au     -4.702214   -1.428210    1.681389
Au     -4.365525   -0.985968   -2.615323
Au     -5.600323    3.124085   -0.104151
Au     -2.741205    2.985808    0.106854
Au     -2.609899    5.857501    0.417692
Au     -4.256170    4.268729    2.183198
Au     -3.943956    4.707868   -1.878761
Au     -4.579278    1.413400    1.983804
Au     -3.069110    2.592118    4.163775
Au     -1.534777    1.297197    2.101616
Au     -1.404751    4.301600    2.529896
Au     -2.441581    3.450507   -3.967850
Au     -1.229103    1.728003   -1.985746
Au     -1.062936    4.760811   -1.769005
Au     -4.235529    1.861659   -2.307667
Au      2.705269    2.309488    4.587372
Au      1.355758    1.156740    2.308530
Au     -2.677635   -2.318115   -4.589137
Au     -1.337397   -1.166852   -2.303011
Au      5.785458   -0.278938    0.412973
Au      2.921652   -0.141442    0.216041
Au     -1.429557   -4.182863   -2.744122
Au      1.787486    4.623585   -1.566175
Au      3.323147    3.165651   -3.554108
Au      1.671690    1.594169   -1.778129
Au     -3.316774   -3.155236    3.544006
Au     -1.657037   -1.593472    1.786342
Au     -1.832486    0.869301    6.085999
Au     -0.297364   -0.413945    4.023457
Au     -1.951041   -1.993222    5.779531
Au      1.050298    0.741974    6.304134
Au      0.932442   -2.128743    5.984541
Au     -0.432941   -3.480893    3.820845
Au      2.749189   -0.582964    4.384582
Au     -0.183685    2.603503    4.489602
Au     -3.383173   -0.278980    3.941042
Au      2.632733   -5.850106   -0.412312
Au      2.751128   -2.992565   -0.105758
Au      4.278590   -4.270958   -2.175116
Au      3.976087   -4.705131    1.876301
Au      5.630487   -3.121632    0.110369
Au      4.273304   -1.867187    2.320173
Au      4.589866   -1.416985   -1.981236
Au      1.080255   -4.758101    1.760162
Au      1.423111   -4.318467   -2.537437
Au      2.461379   -3.438205    3.963457
Au      1.249886   -1.737196    1.990876
Au      3.086537   -2.601218   -4.174961
Au      1.553074   -1.300172   -2.095797
Au      1.860727   -0.877386   -6.086255
Au      0.325147    0.417545   -4.033826
Au     -0.910178    2.144880   -5.993216
Au     -2.721771    0.588117   -4.368506
Au      1.977970    1.992023   -5.777870
Au      3.385757    0.290910   -3.931036
Au     -1.029351   -0.729260   -6.303311
Au      0.211085   -2.621280   -4.496737
Au      0.459992    3.485780   -3.834846
Au     -1.770831   -4.610010    1.567815
O     -8.160497   -0.002615   -0.226859
H     -8.153171    0.332451   -1.151623
H     -9.045141   -0.255531   -0.322215
82
MD iter:009
Au      0.001477   -0.004205   -0.000426
Au      0.121692    2.902603    0.317347
Au     -0.108205   -2.889392   -0.315302
Au      0.244892    5.769196    0.626466
Au     -0.221441   -5.770774   -0.625983
Au      3.085273    5.571008    0.823884
Au      2.986968    2.706892    0.511034
Au      5.863415    2.567945    0.711847
Au      4.312517    3.861015    2.789284
Au      4.624486    4.285394   -1.253733
Au      1.458798    4.176042    2.730825
Au      4.379664    0.971052    2.631173
Au      4.698715    1.422940   -1.674307
Au     -3.076276   -5.583398   -0.825564
Au     -2.972698   -2.719058   -0.518719
Au     -5.831088   -2.556282   -0.708526
Au     -4.307133   -3.849752   -2.800261
Au     -4.618837   -4.275760    1.266499
Au     -5.775582    0.279253   -0.411244
Au     -2.903770    0.149270   -0.201810
Au     -4.702216   -1.428316    1.681416
Au     -4.366203   -0.986779   -2.614635
Au     -5.599405    3.124208   -0.104191
Au     -2.742115    2.985093    0.107399
Au     -2.610186    5.857563    0.418515
Au     -4.255303    4.267701    2.183462
Au     -3.943060    4.708627   -1.879378
Au     -4.578592    1.413193    1.983439
Au     -3.068551    2.591573    4.162924
Au     -1.533983    1.296360    2.102300
Au     -1.405603    4.300641    2.530510
Au     -2.440781    3.451034   -3.968475
Au     -1.229639    1.727473   -1.984986
Au     -1.062462    4.759959   -1.768317
Au     -4.234656    1.861344   -2.306843
Au      2.705321    2.308750    4.587849
Au      1.354858    1.156028    2.309061
Au     -2.676728   -2.318346   -4.589877
Au     -1.336608   -1.167138   -2.302923
Au      5.784549   -0.278607    0.412819
Au      2.922396   -0.141381    0.216860
Au     -1.429028   -4.183171   -2.744965
Au      1.787960    4.622756   -1.565400
Au      3.322404    3.165846   -3.554568
Au      1.671038    1.594556   -1.777359
Au     -3.317452   -3.154075    3.543073
Au     -1.656637   -1.593937    1.786507
Au     -1.831767    0.868534    6.084779
Au     -0.296790   -0.413150    4.022837
Au     -1.950572   -1.992569    5.778643
Au      1.050948    0.742711    6.304659
Au      0.932949   -2.127673    5.983769
Au     -0.432696   -3.481355    3.819847
Au      2.748608   -0.582886    4.384728
Au     -0.183516    2.602561    4.490169
Au     -3.383905   -0.278148    3.940296
Au      2.633441   -5.849211   -0.412555
Au      2.750832   -2.992622   -0.106241
Au      4.278118   -4.269933   -2.174414
Au      3.976647   -4.705692    1.876367
Au      5.630899   -3.121456    0.110979
Au      4.273498   -1.867480    2.319868
Au      4.589560   -1.417099   -1.981583
Au      1.079359   -4.758318    1.759176
Au      1.423849   -4.318507   -2.538137
Au      2.460456   -3.437124    3.963247
Au      1.250523   -1.737902    1.990519
Au      3.085720   -2.601761   -4.175661
Au      1.552385   -1.299519   -2.095848
Au      1.861301   -0.877594   -6.085386
Au      0.325883    0.417141   -4.034722
Au     -0.910430    2.145760   -5.993679
Au     -2.721282    0.588754   -4.367520
Au      1.978606    1.991216   -5.777076
Au      3.385896    0.291574   -3.930050
Au     -1.029908   -0.728242   -6.303810
Au      0.211890   -2.621145   -4.497250
Au      0.460581    3.484850   -3.834655
Au     -1.771621   -4.609042    1.568228
O     -8.169308    0.001391   -0.239966
H     -8.269868    0.323365   -1.113151
H     -8.939371   -0.270177   -0.201976
82
MD iter:010
Au      0.000639   -0.004641   -0.000419
Au      0.120979    2.903139    0.318036
Au     -0.108094   -2.888455   -0.315676
Au      0.244809    5.769566    0.627199
Au     -0.220856   -5.771168   -0.626622
Au      3.084248    5.570020    0.824542
Au      2.987020    2.706197    0.510964
Au      5.863817    2.568316    0.711317
Au      4.311455    3.861096    2.788631
Au      4.623621    4.285589   -1.253069
Au      1.459361    4.176719    2.731108
Au      4.378819    0.970242    2.631673
Au      4.697650    1.422405   -1.674438
Au     -3.076274   -5.583800   -0.826284
Au     -2.973218   -2.719731   -0.519523
Au     -5.829953   -2.555541   -0.707643
Au     -4.307635   -3.848547   -2.800850
Au     -4.619275   -4.275093    1.267229
Au     -5.775804    0.278920   -0.410927
Au     -2.904526    0.150147   -0.201287
Au     -4.702200   -1.428419    1.681436
Au     -4.366865   -0.987588   -2.613937
Au     -5.598458    3.124320   -0.104230
Au     -2.743024    2.984380    0.107943
Au     -2.610463    5.857592    0.419334
Au     -4.254417    4.266655    2.183712
Au     -3.942146    4.709362   -1.879981
Au     -4.577890    1.412984    1.983063
Au     -3.067977    2.591015    4.162056
Au     -1.533188    1.295525    2.102979
Au     -1.406451    4.299669    2.531113
Au     -2.439971    3.451545   -3.969078
Au     -1.230173    1.726942   -1.984227
Au     -1.061988    4.759091   -1.767620
Au     -4.233771    1.861025   -2.306006
Au      2.705362    2.308002    4.588302
Au      1.353959    1.155318    2.309587
Au     -2.675809   -2.318563   -4.590593
Au     -1.335820   -1.167421   -2.302834
Au      5.783614   -0.278275    0.412663
Au      2.923133   -0.141321    0.217679
Au     -1.428498   -4.183465   -2.745795
Au      1.788429    4.621910   -1.564616
Au      3.321648    3.166027   -3.555009
Au      1.670386    1.594940   -1.776589
Au     -3.318113   -3.152899    3.542125
Au     -1.656236   -1.594402    1.786669
Au     -1.831036    0.867759    6.083531
Au     -0.296216   -0.412358    4.022218
Au     -1.950089   -1.991904    5.777726
Au      1.051589    0.743438    6.305155
Au      0.933447   -2.126589    5.982970
Au     -0.432452   -3.481798    3.818839
Au      2.748013   -0.582806    4.384860
Au     -0.183346    2.601607    4.490718
Au     -3.384621   -0.277318    3.939541
Au      2.634141   -5.848286   -0.412795
Au      2.750536   -2.992679   -0.106722
Au      4.277625   -4.268890   -2.173699
Au      3.977188   -4.706229    1.876419
Au      5.631279   -3.121268    0.111587
Au      4.273675   -1.867770    2.319552
Au      4.589238   -1.417212   -1.981920
Au      1.078464   -4.758516    1.758179
Au      1.424584   -4.318533   -2.538824
Au      2.459526   -3.436027    3.963015
Au      1.251159   -1.738605    1.990160
Au      3.084892   -2.602291   -4.176340
Au      1.551697   -1.298865   -2.095897
Au      1.861864   -0.877792   -6.084490
Au      0.326617    0.416738   -4.035615
Au     -0.910673    2.146625   -5.994114
Au     -2.720777    0.589387   -4.366521
Au      1.979228    1.990396   -5.776257
Au      3.386017    0.292233   -3.929054
Au     -1.030455   -0.727217   -6.304278
Au      0.212692   -2.620995   -4.497748
Au      0.461167    3.483903   -3.834451
Au     -1.772407   -4.608058    1.568630
O     -8.170440    0.007901   -0.252907
H     -8.377519    0.328972   -1.102000
H     -8.964369   -0.338495   -0.058327